#!/bin/sh
#
# pgb
#
#  $1 ... starting forecast hour
#  $2 ... ending forecast hour
#  $3 ... forecast hour increment
#
#  This script assumes that the input sigma file is the form sig.ftxx
#  The output pressure file is the form pgb.ftxx
#
if [ $# -ne 3 ] ; then
	echo "`date` $0: argument error" >>ERROR.out
	exit 8
fi
fhs=$1
fhe=$2
fhinc=$3
#
PROG=pgb
cat >$PROG.parm <<EOF
 &NAMPGB
 ICEN2=1,
 FHS=$fhs.,FHE=$fhe.,FHINC=$fhinc.,
/
EOF
if [ linux = cray -o linux = t90 -o linux = t3e ] ; then
	assign -R
fi
rm -f $PROG.x
ln -fs /rhome/yeong/test/svrtest/gsm/bin/$PROG.x $PROG.x
./$PROG.x <$PROG.parm 1>$PROG.out 2>&1
if [ $? -ne 0 ] ; then
	echo "`date` $0: Execution failed." >>ERROR.out
	exit 8
fi
if [  = yes ] ; then
	/rhome/yeong/test/svrtest/libs/etc/catpgb &
fi
exit 0
