#!/bin/sh
#
PROG=ssi
echo `date` -- $PROG started  >>ERROR.out
#
NLATH=`expr 94 \/ 2 + 1`
NITER=${NITER:=100}
cat <<EOF >$PROG.parm
 &NAMANAL
 JCAP=62,NLATH=$NLATH,NLON=192,NSIG=28,
 niter=$NITER,miter=1,
 a=.25,.33,.42,.45,ampdivt=.7,dampdivt=.8,grosst=10.,grossst=10.,
 grossw=10.,grossp=10.,grossq=5.,grosspw=10.,
 &END
EOF
#
rm sig.anl 2>/dev/null
if [ linux = cray -o linux = t90 -o linux = t3e ] ; then
	assign -R
	assign -a oiqc.anl.bufr -Fcos                  fort.30
	assign -a guessig                              fort.35 
	if [ -s sig.anl-6hr ] ; then
		assign -a sig.anl-6hr                        fort.36
	fi
	assign -a guessfc                              fort.37
	assign -a /rhome/yeong/test/svrtest/libs/con/divterrs2812645    fort.47
	assign -a /rhome/yeong/test/svrtest/libs/con/v28newx            fort.48
	assign -a /rhome/yeong/test/svrtest/libs/con/eofs28126          fort.49
	assign -a sig.anl                              fort.51
	assign -a fort.61                            fort.61
	assign -a scratch3                             fort.98
else
	rm -f fort.[0-9]* 2>/dev/null
	ln -fs oiqc.anl.bufr                       fort.30
	ln -fs guessig                             fort.35
	if [ -s sig.anl-6hr ] ; then
		ln -fs sig.anl-6hr                       fort.36
	fi
	ln -fs guessfc                             fort.37
	ln -fs /rhome/yeong/test/svrtest/libs/con/divterrs2812645   fort.47
 	ln -fs /rhome/yeong/test/svrtest/libs/con/v28newx.asc       fort.48
	ln -fs /rhome/yeong/test/svrtest/libs/con/eofs28126         fort.49
	ln -fs sig.anl                             fort.51
	ln -fs fort.61                           fort.61
	ln -fs scratch3                            fort.98
fi
if [ linux = cray -o linux = t90 -o linux = t3e ] ; then
	NCPUS=1
	export NCPUS
fi
if [ linux = sgi ] ; then
	unlimit
fi
rm -f $PROG.x
ln -fs /rhome/yeong/test/svrtest/gsm/bin/${PROG}.x $PROG.x
./$PROG.x <$PROG.parm 1>$PROG.out 2>&1
if [ $? -ne 0 ] ; then
	echo "`date` $0: Execution failed." >>ERROR.out
	exit 8
fi
if [ linux != cray -a linux != t90 -o linux != t3e ] ; then
	rm -f fort.[0-9]* 2>/dev/null
fi
